/*--------------------------------*- C++ -*----------------------------------*\
  =========                 |
  \\      /  F ield         | OpenFOAM: The Open Source CFD Toolbox
   \\    /   O peration     | Website:  https://openfoam.org
    \\  /    A nd           | Version:  10
     \\/     M anipulation  |
\*---------------------------------------------------------------------------*/
FoamFile
{
    format      ascii;
    class       polyBoundaryMesh;
    location    "constant/polyMesh";
    object      boundary;
}
// * * * * * * * * * * * * * * * * * * * * * * * * * * * * * * * * * * * * * //

6
(
    Wall-0
    {
        type            wall;
        inGroups        List<word> 1(wall);
        nFaces          42;
        startFace       71;
    }
    Wall-1
    {
        type            wall;
        inGroups        List<word> 1(wall);
        nFaces          6;
        startFace       113;
    }
    Wall-2
    {
        type            wall;
        inGroups        List<word> 1(wall);
        nFaces          7;
        startFace       119;
    }
    Wall-3
    {
        type            wall;
        inGroups        List<word> 1(wall);
        nFaces          42;
        startFace       126;
    }
    Wall-4
    {
        type            wall;
        inGroups        List<word> 1(wall);
        nFaces          6;
        startFace       168;
    }
    Wall-5
    {
        type            wall;
        inGroups        List<word> 1(wall);
        nFaces          7;
        startFace       174;
    }
)

// ************************************************************************* //
