/*--------------------------------*- C++ -*----------------------------------*\
  =========                 |
  \\      /  F ield         | OpenFOAM: The Open Source CFD Toolbox
   \\    /   O peration     | Website:  https://openfoam.org
    \\  /    A nd           | Version:  10
     \\/     M anipulation  |
\*---------------------------------------------------------------------------*/
FoamFile
{
    format      ascii;
    class       polyBoundaryMesh;
    location    "constant/polyMesh";
    object      boundary;
}
// * * * * * * * * * * * * * * * * * * * * * * * * * * * * * * * * * * * * * //

6
(
    Wall-0
    {
        type            wall;
        inGroups        List<word> 1(wall);
        nFaces          380;
        startFace       8428;
    }
    Wall-1
    {
        type            wall;
        inGroups        List<word> 1(wall);
        nFaces          152;
        startFace       8808;
    }
    Wall-2
    {
        type            wall;
        inGroups        List<word> 1(wall);
        nFaces          160;
        startFace       8960;
    }
    Wall-3
    {
        type            wall;
        inGroups        List<word> 1(wall);
        nFaces          380;
        startFace       9120;
    }
    Wall-4
    {
        type            wall;
        inGroups        List<word> 1(wall);
        nFaces          152;
        startFace       9500;
    }
    Wall-5
    {
        type            wall;
        inGroups        List<word> 1(wall);
        nFaces          160;
        startFace       9652;
    }
)

// ************************************************************************* //
