/*--------------------------------*- C++ -*----------------------------------*\
  =========                 |
  \\      /  F ield         | OpenFOAM: The Open Source CFD Toolbox
   \\    /   O peration     | Website:  https://openfoam.org
    \\  /    A nd           | Version:  12
     \\/     M anipulation  |
\*---------------------------------------------------------------------------*/
FoamFile
{
    format      ascii;
    class       dictionary;
    object      fvSolution;
}
// * * * * * * * * * * * * * * * * * * * * * * * * * * * * * * * * * * * * * //

solvers
{
    rho
    {
        solver          diagonal;
    }

    rhoFinal
    {
        $rho;
    }


    e
    {
        solver           PBiCGStab;
        preconditioner   DIC;
        tolerance        1e-15;
        relTol           1e-15;
    }

    eFinal
    {
        $e;
        tolerance        1e-15;
        relTol           1e-15;
    }
}

PIMPLE
{
}

// ************************************************************************* //
