/*--------------------------------*- C++ -*----------------------------------*\
  =========                 |
  \\      /  F ield         | OpenFOAM: The Open Source CFD Toolbox
   \\    /   O peration     | Website:  https://openfoam.org
    \\  /    A nd           | Version:  10
     \\/     M anipulation  |
\*---------------------------------------------------------------------------*/
FoamFile
{
    format      ascii;
    class       polyBoundaryMesh;
    location    "constant/polyMesh";
    object      boundary;
}
// * * * * * * * * * * * * * * * * * * * * * * * * * * * * * * * * * * * * * //

8
(
    Wall-0
    {
        type            wall;
        inGroups        List<word> 1(wall);
        nFaces          0;
        startFace       97;
    }
    Wall-1
    {
        type            wall;
        inGroups        List<word> 1(wall);
        nFaces          56;
        startFace       97;
    }
    Wall-2
    {
        type            wall;
        inGroups        List<word> 1(wall);
        nFaces          7;
        startFace       153;
    }
    Wall-3
    {
        type            wall;
        inGroups        List<word> 1(wall);
        nFaces          8;
        startFace       160;
    }
    Wall-4
    {
        type            wall;
        inGroups        List<word> 1(wall);
        nFaces          56;
        startFace       168;
    }
    Wall-5
    {
        type            wall;
        inGroups        List<word> 1(wall);
        nFaces          0;
        startFace       224;
    }
    procBoundary1to0
    {
        type            processor;
        inGroups        List<word> 1(processor);
        nFaces          8;
        startFace       224;
        matchTolerance  0.0001;
        myProcNo        1;
        neighbProcNo    0;
    }
    procBoundary1to3
    {
        type            processor;
        inGroups        List<word> 1(processor);
        nFaces          7;
        startFace       232;
        matchTolerance  0.0001;
        myProcNo        1;
        neighbProcNo    3;
    }
)

// ************************************************************************* //
