FoamFile
{
    version     2.0;
    format      ascii;
    class       volScalarField;
    object      T;
}

dimensions      [0 0 0 1 0 0 0];

internalField   uniform 300;

boundaryField
{
    outlet
    {
        type            zeroGradient;
    }
    inlet
    {
        type            fixedValue;
        value           uniform 283;
    }
    interface
    {
        type            fixedValue;
        value           uniform 283;
    }
    adiabatic
    {
        type            zeroGradient;
    }
}
