/*--------------------------------*- C++ -*----------------------------------*\
  =========                 |
  \\      /  F ield         | OpenFOAM: The Open Source CFD Toolbox
   \\    /   O peration     | Website:  https://openfoam.org
    \\  /    A nd           | Version:  12
     \\/     M anipulation  |
\*---------------------------------------------------------------------------*/
FoamFile
{
    format      ascii;
    class       volScalarField;
    location    "0";
    object      rho;
}
// * * * * * * * * * * * * * * * * * * * * * * * * * * * * * * * * * * * * * //

dimensions      [1 -3 0 0 0 0 0];

internalField   uniform 0.5;

boundaryField
{
    left
    {
        type            calculated;
        value           uniform 0.5;
    }
    right
    {
        type            calculated;
        value           uniform 0.5;
    }
    top
    {
        type            calculated;
        value           uniform 0.5;
    }
    front
    {
        type            calculated;
        value           uniform 0.5;
    }
    bottom
    {
        type            calculated;
        value           uniform 0.5;
    }
    back
    {
        type            calculated;
        value           uniform 0.5;
    }
}


// ************************************************************************* //
