/*--------------------------------*- C++ -*----------------------------------*\
  =========                 |
  \\      /  F ield         | OpenFOAM: The Open Source CFD Toolbox
   \\    /   O peration     | Website:  https://openfoam.org
    \\  /    A nd           | Version:  10
     \\/     M anipulation  |
\*---------------------------------------------------------------------------*/
FoamFile
{
    format      ascii;
    class       polyBoundaryMesh;
    location    "constant/polyMesh";
    object      boundary;
}
// * * * * * * * * * * * * * * * * * * * * * * * * * * * * * * * * * * * * * //

14
(
    left_back
    {
        type            wall;
        physicalType    patch;
        nFaces          3750;
        startFace       52075;
    }
    left_bottom
    {
        type            wall;
        physicalType    patch;
        nFaces          50;
        startFace       55825;
    }
    left_left
    {
        type            wall;
        physicalType    patch;
        nFaces          75;
        startFace       55875;
    }
    left_front
    {
        type            wall;
        physicalType    patch;
        nFaces          3750;
        startFace       55950;
    }
    left_top
    {
        type            wall;
        physicalType    patch;
        nFaces          50;
        startFace       59700;
    }
    int_back
    {
        type            wall;
        physicalType    patch;
        nFaces          7500;
        startFace       59750;
    }
    int_bottom
    {
        type            wall;
        physicalType    patch;
        nFaces          100;
        startFace       67250;
    }
    int_front
    {
        type            wall;
        physicalType    patch;
        nFaces          7500;
        startFace       67350;
    }
    int_top
    {
        type            wall;
        physicalType    patch;
        nFaces          100;
        startFace       74850;
    }
    right_back
    {
        type            wall;
        physicalType    patch;
        nFaces          15000;
        startFace       74950;
    }
    right_bottom
    {
        type            wall;
        physicalType    patch;
        nFaces          200;
        startFace       89950;
    }
    right_front
    {
        type            wall;
        physicalType    patch;
        nFaces          15000;
        startFace       90150;
    }
    right_right
    {
        type            wall;
        physicalType    patch;
        nFaces          75;
        startFace       105150;
    }
    right_top
    {
        type            wall;
        physicalType    patch;
        nFaces          200;
        startFace       105225;
    }
)

// ************************************************************************* //
