/*--------------------------------*- C++ -*----------------------------------*\
  =========                 |
  \\      /  F ield         | OpenFOAM: The Open Source CFD Toolbox
   \\    /   O peration     | Website:  https://openfoam.org
    \\  /    A nd           | Version:  10
     \\/     M anipulation  |
\*---------------------------------------------------------------------------*/
FoamFile
{
    format      ascii;
    class       dictionary;
    object      controlDict;
}
// * * * * * * * * * * * * * * * * * * * * * * * * * * * * * * * * * * * * * //

solver          mappedInletTestSolver;

startFrom       startTime;

startTime       0;

stopAt          endTime;

endTime         5.;

deltaT          1.;

writeControl    timeStep;

writeInterval   1;

writeFormat     ascii;

writePrecision  20;

writeCompression off;

timeFormat      general;

timePrecision   20;

runTimeModifiable true;

// ************************************************************************* //
