/*--------------------------------*- C++ -*----------------------------------*\
  =========                 |
  \\      /  F ield         | OpenFOAM: The Open Source CFD Toolbox
   \\    /   O peration     | Website:  https://openfoam.org
    \\  /    A nd           | Version:  10
     \\/     M anipulation  |
\*---------------------------------------------------------------------------*/
FoamFile
{
    format      ascii;
    class       polyBoundaryMesh;
    location    "constant/polyMesh";
    object      boundary;
}
// * * * * * * * * * * * * * * * * * * * * * * * * * * * * * * * * * * * * * //

6
(
    Wall-0
    {
        type            wall;
        inGroups        List<word> 1(wall);
        nFaces          16;
        startFace       418;
    }
    Wall-1
    {
        type            wall;
        inGroups        List<word> 1(wall);
        nFaces          224;
        startFace       434;
    }
    Wall-2
    {
        type            wall;
        inGroups        List<word> 1(wall);
        nFaces          14;
        startFace       658;
    }
    Wall-3
    {
        type            wall;
        inGroups        List<word> 1(wall);
        nFaces          16;
        startFace       672;
    }
    Wall-4
    {
        type            wall;
        inGroups        List<word> 1(wall);
        nFaces          224;
        startFace       688;
    }
    Wall-5
    {
        type            wall;
        inGroups        List<word> 1(wall);
        nFaces          14;
        startFace       912;
    }
)

// ************************************************************************* //
