/*--------------------------------*- C++ -*----------------------------------*\
  =========                 |
  \\      /  F ield         | OpenFOAM: The Open Source CFD Toolbox
   \\    /   O peration     | Website:  https://openfoam.org
    \\  /    A nd           | Version:  10
     \\/     M anipulation  |
\*---------------------------------------------------------------------------*/
FoamFile
{
    format      ascii;
    class       volScalarField;
    location    "0";
    object      rho;
}
// * * * * * * * * * * * * * * * * * * * * * * * * * * * * * * * * * * * * * //

dimensions      [1 -3 0 0 0 0 0];

internalField   uniform 1.16102809392765;

boundaryField
{
    left_back
    {
        type            calculated;
        value           uniform 1.16102809392765;
    }
    left_bottom
    {
        type            calculated;
        value           uniform 1.16102809392765;
    }
    left_left
    {
        type            calculated;
        value           uniform 1.16102809392765;
    }
    left_front
    {
        type            calculated;
        value           uniform 1.16102809392765;
    }
    left_top
    {
        type            calculated;
        value           uniform 1.16102809392765;
    }
    int_back
    {
        type            calculated;
        value           uniform 1.16102809392765;
    }
    int_bottom
    {
        type            calculated;
        value           uniform 0.995166937652272;
    }
    int_front
    {
        type            calculated;
        value           uniform 1.16102809392765;
    }
    int_top
    {
        type            calculated;
        value           uniform 1.16102809392765;
    }
    right_back
    {
        type            calculated;
        value           uniform 1.16102809392765;
    }
    right_bottom
    {
        type            calculated;
        value           uniform 1.16102809392765;
    }
    right_front
    {
        type            calculated;
        value           uniform 1.16102809392765;
    }
    right_right
    {
        type            calculated;
        value           uniform 1.16102809392765;
    }
    right_top
    {
        type            calculated;
        value           uniform 1.16102809392765;
    }
}


// ************************************************************************* //
