/*--------------------------------*- C++ -*----------------------------------*\
  =========                 |
  \\      /  F ield         | OpenFOAM: The Open Source CFD Toolbox
   \\    /   O peration     | Website:  https://openfoam.org
    \\  /    A nd           | Version:  10
     \\/     M anipulation  |
\*---------------------------------------------------------------------------*/
FoamFile
{
    format      ascii;
    class       polyBoundaryMesh;
    location    "constant/polyMesh";
    object      boundary;
}
// * * * * * * * * * * * * * * * * * * * * * * * * * * * * * * * * * * * * * //

8
(
    patch0
    {
        type            wall;
        physicalType    patch;
        inGroups        List<word> 1(wall);
        nFaces          25;
        startFace       300;
    }
    patch1
    {
        type            wall;
        physicalType    patch;
        inGroups        List<word> 1(wall);
        nFaces          0;
        startFace       325;
    }
    patch2
    {
        type            wall;
        physicalType    patch;
        inGroups        List<word> 1(wall);
        nFaces          25;
        startFace       325;
    }
    patch3
    {
        type            wall;
        physicalType    patch;
        inGroups        List<word> 1(wall);
        nFaces          0;
        startFace       350;
    }
    patch4
    {
        type            wall;
        physicalType    patch;
        inGroups        List<word> 1(wall);
        nFaces          25;
        startFace       350;
    }
    patch5
    {
        type            wall;
        physicalType    patch;
        inGroups        List<word> 1(wall);
        nFaces          25;
        startFace       375;
    }
    procBoundary2to0
    {
        type            processor;
        inGroups        List<word> 1(processor);
        nFaces          25;
        startFace       400;
        matchTolerance  0.0001;
        myProcNo        2;
        neighbProcNo    0;
    }
    procBoundary2to3
    {
        type            processor;
        inGroups        List<word> 1(processor);
        nFaces          25;
        startFace       425;
        matchTolerance  0.0001;
        myProcNo        2;
        neighbProcNo    3;
    }
)

// ************************************************************************* //
