FoamFile {
    version         2.0;
    format          ascii;
    class           dictionary;
    object          controlDict;
}

solver fluid;

startFrom startTime;

stopAt endTime;

writeFormat ascii;

writePrecision 12;

//writeCompression on;

timeFormat general;

timePrecision 12;

runTimeModifiable false;

deltaT 1;

startTime 0.0;

writeInterval 10;

adjustTimeStep no;

endTime 10;

writeControl timeStep;
