/*--------------------------------*- C++ -*----------------------------------*\
  =========                 |
  \\      /  F ield         | OpenFOAM: The Open Source CFD Toolbox
   \\    /   O peration     | Website:  https://openfoam.org
    \\  /    A nd           | Version:  10
     \\/     M anipulation  |
\*---------------------------------------------------------------------------*/
FoamFile
{
    format      ascii;
    class       polyBoundaryMesh;
    location    "constant/polyMesh";
    object      boundary;
}
// * * * * * * * * * * * * * * * * * * * * * * * * * * * * * * * * * * * * * //

8
(
    Wall-0
    {
        type            wall;
        inGroups        List<word> 1(wall);
        nFaces          81;
        startFace       1233;
    }
    Wall-1
    {
        type            wall;
        inGroups        List<word> 1(wall);
        nFaces          54;
        startFace       1314;
    }
    Wall-2
    {
        type            wall;
        inGroups        List<word> 1(wall);
        nFaces          54;
        startFace       1368;
    }
    Wall-3
    {
        type            wall;
        inGroups        List<word> 1(wall);
        nFaces          74;
        startFace       1422;
    }
    Wall-4
    {
        type            wall;
        inGroups        List<word> 1(wall);
        nFaces          0;
        startFace       1496;
    }
    Wall-5
    {
        type            wall;
        inGroups        List<word> 1(wall);
        nFaces          0;
        startFace       1496;
    }
    procBoundary0to1
    {
        type            processor;
        inGroups        List<word> 1(processor);
        nFaces          51;
        startFace       1496;
        matchTolerance  0.0001;
        myProcNo        0;
        neighbProcNo    1;
    }
    procBoundary0to2
    {
        type            processor;
        inGroups        List<word> 1(processor);
        nFaces          64;
        startFace       1547;
        matchTolerance  0.0001;
        myProcNo        0;
        neighbProcNo    2;
    }
)

// ************************************************************************* //
